/*--------------------------------*- C++ -*----------------------------------*\
| =========                 |                                                 |
| \\      /  F ield         | OpenFOAM: The Open Source CFD Toolbox           |
|  \\    /   O peration     | Version:  v2106                                 |
|   \\  /    A nd           | Website:  www.openfoam.com                      |
|    \\/     M anipulation  |                                                 |
\*---------------------------------------------------------------------------*/
FoamFile
{
    version     2.0;
    format      ascii;
    class       dictionary;
    location    "system";
    object      fvSolution;
}
// * * * * * * * * * * * * * * * * * * * * * * * * * * * * * * * * * * * * * //

solvers
{
    alpha.phase1
    {
        nAlphaCorr      1;
        nAlphaSubCycles 1;
        cAlpha          1;
    }

    Yi 
    {
        cYi             1;  
        maxConcentration
        {
            Species 1.0;
        }

        solver          PBiCGStab;
        preconditioner  DILU;
        tolerance       1e-09;
        relTol          0;
    }

    "Species.*"
    {
        $Yi
    }
    YiFinal
    {
        $Yi
    }

    "pcorr.*"
    {
        solver          GAMG;
        tolerance       1e-8;
        relTol          0.001;
        smoother        GaussSeidel;
        nPreSweeps      0;
        nPostSweeps     2;
        nFinestSweeps   2;
        cacheAgglomeration on;
        nCellsInCoarsestLevel 500;
        agglomerator    faceAreaPair;
        mergeLevels     1;
    }

    p_rgh
    {
        solver          GAMG;
        tolerance       1e-6;
        relTol          0.1;
        smoother        GaussSeidel;
        nPreSweeps      0;
        nPostSweeps     2;
        nFinestSweeps   2;
        cacheAgglomeration on;
        nCellsInCoarsestLevel 500;
        agglomerator    faceAreaPair;
        mergeLevels     1;
    }

    p_rghFinal
    {
        $p_rgh;
        tolerance       1e-7;
        relTol          0;
    }

    pc
    {
        solver          GAMG;
        tolerance       1e-7;
        relTol          0.1;
        smoother        GaussSeidel;
        nPreSweeps      0;
        nPostSweeps     2;
        nFinestSweeps   2;
        cacheAgglomeration on;
        nCellsInCoarsestLevel 500;
        agglomerator    faceAreaPair;
        mergeLevels     1;
    }

    pcFinal
    {
        solver          GAMG;
        tolerance       1e-7;
        relTol          0.01;
        smoother        GaussSeidel;
        nPreSweeps      0;
        nPostSweeps     2;
        nFinestSweeps   2;
        cacheAgglomeration on;
        nCellsInCoarsestLevel 500;
        agglomerator    faceAreaPair;
        mergeLevels     1;
    }

    U
    {
        solver          PBiCGStab;
        preconditioner  DILU;
        tolerance       1e-9;
        relTol          0;
    }

    UFinal
    {
        solver          PBiCGStab;
        preconditioner  DILU;
        tolerance       1e-9;
        relTol          0;
    }
}

PIMPLE
{
    pRefCell 0;
    pRefValue 0;
    pdRefCell 0;
    pdRefValue 0;
    pcRefCell 0;
    pcRefValue 0;
    cSK 0.5;
    nSK 2;
    cPc  0; 


    momentumPredictor yes;
    nOuterCorrectors 1;
    nCorrectors     5;
    nNonOrthogonalCorrectors 0;
}

SIMPLE
{
    nNonOrthogonalCorrectors 0;
}

cache
{
  grad(U);
  grad(p);
}
// ************************************************************************* //
