/*--------------------------------*- C++ -*----------------------------------*\
| =========                 |                                                 |
| \\      /  F ield         | OpenFOAM: The Open Source CFD Toolbox           |
|  \\    /   O peration     | Version:  v2106                                 |
|   \\  /    A nd           | Website:  www.openfoam.com                      |
|    \\/     M anipulation  |                                                 |
\*---------------------------------------------------------------------------*/
FoamFile
{
    version     2.0;
    format      ascii;
    class       dictionary;
    location    "system";
    object      controlDict;
}
// * * * * * * * * * * * * * * * * * * * * * * * * * * * * * * * * * * * * * //

application     reactiveTransportALEFoam;

startFrom       latestTime;

startTime       0;

stopAt          endTime;

endTime         1e-6;

deltaT          1e-6;

writeControl    timeStep;

writeInterval   1;

purgeWrite      0;

writeFormat     ascii;

writePrecision  10;

writeCompression off;

timeFormat      general;

timePrecision   10;

runTimeModifiable yes;

checkFrequency 1;

libs (
"libfvMotionSolverGCFOAM.so"
"libmeshToolsGCFOAM.so"
);



OptimisationSwitches
{
    commsType       blocking;
}

// ************************************************************************* //
