/*--------------------------------*- C++ -*----------------------------------*\
| =========                 |                                                 |
| \\      /  F ield         | OpenFOAM: The Open Source CFD Toolbox           |
|  \\    /   O peration     | Version:  v2106                                 |
|   \\  /    A nd           | Website:  www.openfoam.com                      |
|    \\/     M anipulation  |                                                 |
\*---------------------------------------------------------------------------*/
FoamFile
{
    version     2.0;
    format      ascii;
    class       dictionary;
    object      blockMeshDict;
}

// * * * * * * * * * * * * * * * * * * * * * * * * * * * * * * * * * * * * * //

scale 0.0000053;

vertices
(
    (0 0 0)
    (300 0 0)
    (300 300 0)
    (0 300 0)
    (0 0 300)
    (300 0 300)
    (300 300 300)
    (0 300 300)
);

blocks
(
    hex (0 1 2 3 4 5 6 7) (75 75 75) simpleGrading (1 1 1)
);

edges
(
);

boundary
(
  walls
    {
        type patch;
        faces
        (
            (1 5 4 0)
            (3 7 6 2)
            (0 3 2 1)
            (4 5 6 7)
        );
    }

   inlet 
    {
        type patch;
        faces
        (
            (0 4 7 3)
        );
    }

   outlet 
    {
        type patch;
        faces
        (
            (2 6 5 1)
        );
    }
);


// ************************************************************************* //
