/*--------------------------------*- C++ -*----------------------------------*\
| =========                 |                                                 |
| \\      /  F ield         | OpenFOAM: The Open Source CFD Toolbox           |
|  \\    /   O peration     | Version:  v2106                                 |
|   \\  /    A nd           | Website:  www.openfoam.com                      |
|    \\/     M anipulation  |                                                 |
\*---------------------------------------------------------------------------*/
FoamFile
{
    version     2.0;
    format      ascii;
    class       volScalarField;
    location    "0";
    object      Species;
}
// * * * * * * * * * * * * * * * * * * * * * * * * * * * * * * * * * * * * * //

dimensions      [0 -3 0 0 1 0 0];

internalField   uniform 0;

boundaryField
{
    top
    {
        type symmetryPlane;
    }

    bottom
    {
        type            globalConcentrationMixed;
    }
    inlet
    {
	type            zeroGradient;
    }
    outlet
    {
	type            zeroGradient;
    }
    frontandback
    {
	type            empty;
    }
}

// ************************************************************************* //
